
  -OEChem-03032000533D

102104  0     1  0  0  0  0  0999 V2000
  -10.4250    3.4200   72.4470 C   0  0  0  0  0  0  0  0  0  0  0  0
  -10.5850    4.8610   74.1140 N   0  0  0  0  0  0  0  0  0  0  0  0
  -10.0480    3.7550   74.5750 O   0  0  0  0  0  0  0  0  0  0  0  0
   -9.9240    2.8570   73.6420 C   0  0  0  0  0  0  0  0  0  0  0  0
  -12.5830    6.6250   72.3740 N   0  0  0  0  0  0  0  0  0  0  0  0
  -11.0620    5.9430   70.7930 O   0  0  0  0  0  0  0  0  0  0  0  0
   -9.3450    1.4580   73.8060 C   0  0  0  0  0  0  0  0  0  0  0  0
  -11.9430    9.2810   69.9110 N   0  0  0  0  0  0  0  0  0  0  0  0
  -11.4660    9.1590   72.1250 O   0  0  0  0  0  0  0  0  0  0  0  0
  -10.8480    4.7380   72.8100 C   0  0  0  0  0  0  0  0  0  0  0  0
  -11.4520   12.8590   70.0850 N   0  0  0  0  0  0  0  0  0  0  0  0
  -12.3810   11.6170   68.3280 O   0  0  0  0  0  0  0  0  0  0  0  0
  -11.4750    5.7980   71.8910 C   0  0  0  0  0  0  0  0  0  0  0  0
  -11.2380   11.5710   63.2750 N   0  3  0  0  0  0  0  0  0  0  0  0
  -10.4110   14.5700   68.1310 O   0  0  0  0  0  0  0  0  0  0  0  0
  -13.1660    7.6250   71.4950 C   0  0  2  0  0  0  0  0  0  0  0  0
  -12.5240   14.9870   67.2600 N   0  0  0  0  0  0  0  0  0  0  0  0
  -13.4400   12.7300   63.4910 O   0  0  0  0  0  0  0  0  0  0  0  0
  -12.1150    8.7500   71.2410 C   0  0  0  0  0  0  0  0  0  0  0  0
  -10.3540   17.7310   67.4510 O   0  0  0  0  0  0  0  0  0  0  0  0
  -14.3970    8.2180   72.1320 C   0  0  0  0  0  0  0  0  0  0  0  0
   -8.8400   17.7820   65.7660 O   0  0  0  0  0  0  0  0  0  0  0  0
  -10.9550   10.3360   69.6660 C   0  0  2  0  0  0  0  0  0  0  0  0
  -11.6630   11.6060   69.2730 C   0  0  0  0  0  0  0  0  0  0  0  0
  -10.0040    9.8950   68.5150 C   0  0  0  0  0  0  0  0  0  0  0  0
   -9.1300   11.0860   68.0120 C   0  0  0  0  0  0  0  0  0  0  0  0
   -9.1160    8.6870   68.9550 C   0  0  0  0  0  0  0  0  0  0  0  0
  -12.1240   14.0960   69.7160 C   0  0  2  0  0  0  0  0  0  0  0  0
  -11.5820   14.5610   68.3340 C   0  0  0  0  0  0  0  0  0  0  0  0
  -11.8250   15.1550   70.7650 C   0  0  0  0  0  0  0  0  0  0  0  0
  -13.0010   15.3970   71.7640 C   0  0  0  0  0  0  0  0  0  0  0  0
  -13.8340   14.1000   72.0190 C   0  0  0  0  0  0  0  0  0  0  0  0
  -12.4870   15.9820   73.0820 C   0  0  0  0  0  0  0  0  0  0  0  0
  -11.9930   15.4250   65.9510 C   0  0  2  0  0  0  0  0  0  0  0  0
  -12.4990   16.8170   65.6470 C   0  0  0  0  0  0  0  0  0  0  0  0
  -11.3650   17.8020   65.2890 C   0  0  0  0  0  0  0  0  0  0  0  0
  -10.1670   17.7640   66.2780 C   0  0  0  0  0  0  0  0  0  0  0  0
  -12.4560   14.4640   64.8580 C   0  0  0  0  0  0  0  0  0  0  0  0
  -11.8270   13.0030   65.0480 C   0  0  2  0  0  0  0  0  0  0  0  0
  -10.2150   13.0410   64.7250 C   0  0  0  0  0  0  0  0  0  0  0  0
   -9.9250   12.0610   63.8360 C   0  0  0  0  0  0  0  0  0  0  0  0
  -12.3830   12.1480   64.2560 C   0  0  2  0  0  0  0  0  0  0  0  0
   -7.8300   17.5820   66.7590 C   0  0  0  0  0  0  0  0  0  0  0  0
   -5.7390   18.9300   67.3220 C   0  0  0  0  0  0  0  0  0  0  0  0
   -5.0670   20.1380   67.5020 C   0  0  0  0  0  0  0  0  0  0  0  0
   -5.7440   21.3470   67.3200 C   0  0  0  0  0  0  0  0  0  0  0  0
   -7.0850   21.3390   66.9610 C   0  0  0  0  0  0  0  0  0  0  0  0
   -7.7600   20.1340   66.7780 C   0  0  0  0  0  0  0  0  0  0  0  0
   -7.0820   18.9270   66.9590 C   0  0  0  0  0  0  0  0  0  0  0  0
  -10.4773    2.9570   71.4727 H   0  0  0  0  0  0  0  0  0  0  0  0
  -12.9358    6.5026   73.3017 H   0  0  0  0  0  0  0  0  0  0  0  0
   -9.0377    1.3080   74.8515 H   0  0  0  0  0  0  0  0  0  0  0  0
  -10.1074    0.7120   73.5374 H   0  0  0  0  0  0  0  0  0  0  0  0
   -8.4716    1.3432   73.1472 H   0  0  0  0  0  0  0  0  0  0  0  0
  -12.4974    8.9297   69.1565 H   0  0  0  0  0  0  0  0  0  0  0  0
  -10.8472   12.8398   70.8811 H   0  0  0  0  0  0  0  0  0  0  0  0
  -11.3697   11.9167   62.3459 H   0  0  0  0  0  0  0  0  0  0  0  0
  -11.2603   10.5713   63.2650 H   0  0  0  0  0  0  0  0  0  0  0  0
  -13.4366    7.1704   70.5306 H   0  0  0  0  0  0  0  0  0  0  0  0
  -13.5104   14.9767   67.4239 H   0  0  0  0  0  0  0  0  0  0  0  0
  -14.1078   13.0661   64.0772 H   0  0  0  0  0  0  0  0  0  0  0  0
  -14.8308    8.9731   71.4599 H   0  0  0  0  0  0  0  0  0  0  0  0
  -15.1346    7.4226   72.3144 H   0  0  0  0  0  0  0  0  0  0  0  0
  -14.1240    8.6909   73.0869 H   0  0  0  0  0  0  0  0  0  0  0  0
  -10.3581   10.5130   70.5729 H   0  0  0  0  0  0  0  0  0  0  0  0
  -10.6290    9.5607   67.6738 H   0  0  0  0  0  0  0  0  0  0  0  0
   -8.4713   10.7414   67.2012 H   0  0  0  0  0  0  0  0  0  0  0  0
   -9.7835   11.8877   67.6376 H   0  0  0  0  0  0  0  0  0  0  0  0
   -8.5191   11.4688   68.8428 H   0  0  0  0  0  0  0  0  0  0  0  0
   -8.4549    8.3959   68.1254 H   0  0  0  0  0  0  0  0  0  0  0  0
   -8.5075    8.9769   69.8243 H   0  0  0  0  0  0  0  0  0  0  0  0
   -9.7605    7.8376   69.2254 H   0  0  0  0  0  0  0  0  0  0  0  0
  -13.2106   13.9404   69.6454 H   0  0  0  0  0  0  0  0  0  0  0  0
  -10.9419   14.8366   71.3384 H   0  0  0  0  0  0  0  0  0  0  0  0
  -11.6060   16.1021   70.2501 H   0  0  0  0  0  0  0  0  0  0  0  0
  -13.6747   16.1371   71.3074 H   0  0  0  0  0  0  0  0  0  0  0  0
  -14.6476   14.3192   72.7261 H   0  0  0  0  0  0  0  0  0  0  0  0
  -14.2598   13.7451   71.0689 H   0  0  0  0  0  0  0  0  0  0  0  0
  -13.1810   13.3221   72.4414 H   0  0  0  0  0  0  0  0  0  0  0  0
  -13.3326   16.1428   73.7669 H   0  0  0  0  0  0  0  0  0  0  0  0
  -11.7726   15.2820   73.5398 H   0  0  0  0  0  0  0  0  0  0  0  0
  -11.9861   16.9416   72.8865 H   0  0  0  0  0  0  0  0  0  0  0  0
  -10.8934   15.4354   65.9799 H   0  0  0  0  0  0  0  0  0  0  0  0
  -13.1958   16.7598   64.7977 H   0  0  0  0  0  0  0  0  0  0  0  0
  -13.0297   17.1988   66.5316 H   0  0  0  0  0  0  0  0  0  0  0  0
  -10.9934   17.5529   64.2841 H   0  0  0  0  0  0  0  0  0  0  0  0
  -11.7791   18.8211   65.2846 H   0  0  0  0  0  0  0  0  0  0  0  0
  -13.5528   14.3871   64.8921 H   0  0  0  0  0  0  0  0  0  0  0  0
  -12.1465   14.8609   63.8799 H   0  0  0  0  0  0  0  0  0  0  0  0
  -11.9411   12.7244   66.1060 H   0  0  0  0  0  0  0  0  0  0  0  0
   -9.9463   14.0186   64.2983 H   0  0  0  0  0  0  0  0  0  0  0  0
   -9.6479   12.8778   65.6533 H   0  0  0  0  0  0  0  0  0  0  0  0
   -9.3988   11.2372   64.3403 H   0  0  0  0  0  0  0  0  0  0  0  0
   -9.2939   12.4589   63.0277 H   0  0  0  0  0  0  0  0  0  0  0  0
  -12.7798   11.2894   64.8176 H   0  0  0  0  0  0  0  0  0  0  0  0
   -8.2941   17.2684   67.7057 H   0  0  0  0  0  0  0  0  0  0  0  0
   -7.1239   16.8084   66.4229 H   0  0  0  0  0  0  0  0  0  0  0  0
   -5.2166   17.9956   67.4645 H   0  0  0  0  0  0  0  0  0  0  0  0
   -4.0239   20.1396   67.7819 H   0  0  0  0  0  0  0  0  0  0  0  0
   -5.2257   22.2844   67.4582 H   0  0  0  0  0  0  0  0  0  0  0  0
   -7.6087   22.2734   66.8226 H   0  0  0  0  0  0  0  0  0  0  0  0
   -8.8029   20.1336   66.4974 H   0  0  0  0  0  0  0  0  0  0  0  0
  1  4  2  0  0  0  0
  1 10  1  0  0  0  0
  2  3  1  0  0  0  0
  2 10  2  0  0  0  0
  3  4  1  0  0  0  0
  4  7  1  0  0  0  0
  5 13  1  0  0  0  0
  5 16  1  0  0  0  0
  6 13  2  0  0  0  0
  8 19  1  0  0  0  0
  8 23  1  0  0  0  0
  9 19  2  0  0  0  0
 10 13  1  0  0  0  0
 11 24  1  0  0  0  0
 11 28  1  0  0  0  0
 12 24  2  0  0  0  0
 14 41  1  0  0  0  0
 14 42  1  0  0  0  0
 15 29  2  0  0  0  0
 16 19  1  0  0  0  0
 16 21  1  0  0  0  0
 17 29  1  0  0  0  0
 17 34  1  0  0  0  0
 18 42  1  0  0  0  0
 20 37  2  0  0  0  0
 22 37  1  0  0  0  0
 22 43  1  0  0  0  0
 23 24  1  0  0  0  0
 23 25  1  0  0  0  0
 25 26  1  0  0  0  0
 25 27  1  0  0  0  0
 28 29  1  0  0  0  0
 28 30  1  0  0  0  0
 30 31  1  0  0  0  0
 31 32  1  0  0  0  0
 31 33  1  0  0  0  0
 34 35  1  0  0  0  0
 34 38  1  0  0  0  0
 35 36  1  0  0  0  0
 36 37  1  0  0  0  0
 38 39  1  0  0  0  0
 39 40  1  0  0  0  0
 39 42  1  0  0  0  0
 40 41  1  0  0  0  0
 43 49  1  0  0  0  0
 44 45  2  0  0  0  0
 44 49  1  0  0  0  0
 45 46  1  0  0  0  0
 46 47  2  0  0  0  0
 47 48  1  0  0  0  0
 48 49  2  0  0  0  0
  1 50  1  0  0  0  0
  5 51  1  0  0  0  0
  7 52  1  0  0  0  0
  7 53  1  0  0  0  0
  7 54  1  0  0  0  0
  8 55  1  0  0  0  0
 11 56  1  0  0  0  0
 14 57  1  0  0  0  0
 14 58  1  0  0  0  0
 16 59  1  0  0  0  0
 17 60  1  0  0  0  0
 18 61  1  0  0  0  0
 21 62  1  0  0  0  0
 21 63  1  0  0  0  0
 21 64  1  0  0  0  0
 23 65  1  0  0  0  0
 25 66  1  0  0  0  0
 26 67  1  0  0  0  0
 26 68  1  0  0  0  0
 26 69  1  0  0  0  0
 27 70  1  0  0  0  0
 27 71  1  0  0  0  0
 27 72  1  0  0  0  0
 28 73  1  0  0  0  0
 30 74  1  0  0  0  0
 30 75  1  0  0  0  0
 31 76  1  0  0  0  0
 32 77  1  0  0  0  0
 32 78  1  0  0  0  0
 32 79  1  0  0  0  0
 33 80  1  0  0  0  0
 33 81  1  0  0  0  0
 33 82  1  0  0  0  0
 34 83  1  0  0  0  0
 35 84  1  0  0  0  0
 35 85  1  0  0  0  0
 36 86  1  0  0  0  0
 36 87  1  0  0  0  0
 38 88  1  0  0  0  0
 38 89  1  0  0  0  0
 39 90  1  0  0  0  0
 40 91  1  0  0  0  0
 40 92  1  0  0  0  0
 41 93  1  0  0  0  0
 41 94  1  0  0  0  0
 42 95  1  0  0  0  0
 43 96  1  0  0  0  0
 43 97  1  0  0  0  0
 44 98  1  0  0  0  0
 45 99  1  0  0  0  0
 46100  1  0  0  0  0
 47101  1  0  0  0  0
 48102  1  0  0  0  0
M  CHG  1  14   1
M  END
$$$$
